* File: fourbitsadder.pex.netlist.pex
* Created: Thu May 25 15:49:30 2023
* Program "Calibre xRC"
* Version "v2017.4_19.14"
* Nominal Temperature: 27C
* Circuit Temperature: 27C
* 
.subckt PM_FOURBITSADDER%OUT_1 24 29 36 41
c0 54 0 0.119527f
c1 47 0 0.148131f
c2 42 0 0.0977296f
c3 39 0 0.261717f
c4 38 0 0.0553235f
c5 37 0 0.0107536f
c6 32 0 0.0962135f
c7 27 0 0.198788f
c8 22 0 0.0231819f
c9 21 0 0.105222f
c10 20 0 0.00953288f
c11 18 0 0.032306f
c12 10 0 0.667559f
c13 8 0 0.149968f
r14 44 54 13.2552
r15 39 44 8.03457
r16 39 41 34.25
r17 38 44 11.5662
r18 37 42 4.47568
r19 37 38 22.9135
r20 36 42 19
r21 32 47 8
r22 31 32 16.3327
r23 29 31 4.59
r24 26 27 8.16635
r25 24 26 2.295
r26 21 54 8
r27 20 22 0.0487391
r28 20 21 8
r29 15 18 0.0487391
r30 15 47 8
r31 12 22 0.1027
r32 10 12 0.0363174
r33 10 18 3.1733
r34 8 27 0.0441769
r35 5 32 0.0516853
r36 5 8 0.322609
.ends

.subckt PM_FOURBITSADDER%C1 36 41 48 52 56 59 62 66
c0 106 0 0.416684f
c1 104 0 0.0837828f
c2 97 0 0.136045f
c3 94 0 0.147118f
c4 88 0 0.152058f
c5 87 0 0.105628f
c6 85 0 0.0264837f
c7 84 0 0.0384187f
c8 82 0 0.138755f
c9 81 0 0.111919f
c10 76 0 0.115403f
c11 75 0 0.130945f
c12 66 0 0.116176f
c13 62 0 0.150832f
c14 57 0 0.101275f
c15 56 0 0.0941282f
c16 50 0 0.224081f
c17 48 0 0.113381f
c18 44 0 0.123697f
c19 39 0 0.0459221f
c20 32 0 0.0501264f
c21 28 0 0.0586595f
c22 27 0 0.0162851f
c23 25 0 0.0779073f
c24 23 0 0.0185953f
c25 22 0 0.957106f
c26 21 0 0.0342779f
c27 17 0 0.107915f
c28 16 0 0.0196546f
c29 15 0 0.204685f
c30 9 0 0.031563f
c31 7 0 0.080706f
c32 5 0 0.0821844f
c33 4 0 0.0609258f
r34 104 106 0.0487391
r35 88 104 8
r36 87 90 8.23869
r37 87 89 8.23869
r38 87 88 13.2552
r39 84 85 8.52632
r40 84 90 13.75
r41 82 100 8
r42 81 82 13.2552
r43 78 81 4.88298
r44 76 77 0.387097
r45 74 76 6.09677
r46 74 75 13.2552
r47 72 97 8
r48 71 72 13.2552
r49 66 89 26.25
r50 62 85 41
r51 57 77 4.6844
r52 57 59 34.25
r53 54 76 4.6844
r54 54 56 29.75
r55 53 78 4.73303
r56 53 56 23.25
r57 50 71 8.16175
r58 50 52 34.25
r59 46 71 8.16175
r60 46 48 29.75
r61 43 44 16.3327
r62 41 43 4.59
r63 39 94 0.0746667
r64 38 39 8.16635
r65 36 38 2.295
r66 32 35 0.0487391
r67 32 97 8
r68 28 94 8
r69 27 30 0.0487391
r70 27 28 8
r71 25 35 0.4368
r72 22 25 0.0363174
r73 22 23 3.6166
r74 21 23 0.0363174
r75 21 30 0.1326
r76 17 72 0.0792622
r77 16 75 0.0647029
r78 16 17 0.0730435
r79 15 39 0.0433427
r80 14 44 0.0516853
r81 14 15 0.48087
r82 9 106 0.7644
r83 7 9 0.0363174
r84 6 7 0.1742
r85 5 100 0.0487391
r86 4 6 0.0363174
r87 4 5 0.0936
.ends

.subckt PM_FOURBITSADDER%OUT_4 24 29 36 41
c0 54 0 0.119527f
c1 47 0 0.148132f
c2 42 0 0.0977296f
c3 39 0 0.261717f
c4 38 0 0.0553235f
c5 37 0 0.0107536f
c6 32 0 0.0962135f
c7 27 0 0.201129f
c8 22 0 0.0231819f
c9 21 0 0.105222f
c10 20 0 0.00953288f
c11 18 0 0.0344569f
c12 10 0 0.768981f
c13 8 0 0.149968f
r14 44 54 13.2552
r15 39 44 8.03457
r16 39 41 34.25
r17 38 44 11.5662
r18 37 42 4.47568
r19 37 38 22.9135
r20 36 42 19
r21 32 47 8
r22 31 32 16.3327
r23 29 31 4.59
r24 26 27 8.16635
r25 24 26 2.295
r26 21 54 8
r27 20 22 0.0487391
r28 20 21 8
r29 15 18 0.0487391
r30 15 47 8
r31 12 22 0.1027
r32 10 12 0.0363174
r33 10 18 3.1733
r34 8 27 0.0441769
r35 5 32 0.0516853
r36 5 8 0.322609
.ends

.subckt PM_FOURBITSADDER%C2 34 39 46 50 54 57 60 64
c0 106 0 0.416684f
c1 104 0 0.0837828f
c2 92 0 0.147195f
c3 86 0 0.152058f
c4 85 0 0.105628f
c5 83 0 0.0264837f
c6 82 0 0.0384187f
c7 80 0 0.138829f
c8 79 0 0.111961f
c9 74 0 0.115397f
c10 73 0 0.131249f
c11 64 0 0.116176f
c12 60 0 0.150832f
c13 55 0 0.101305f
c14 54 0 0.0942126f
c15 48 0 0.224064f
c16 46 0 0.11333f
c17 42 0 0.123697f
c18 37 0 0.0459221f
c19 32 0 0.120098f
c20 31 0 0.0546289f
c21 28 0 0.0575501f
c22 27 0 0.0163839f
c23 25 0 0.0762805f
c24 23 0 0.0178039f
c25 22 0 0.846208f
c26 21 0 0.0246886f
c27 17 0 0.107869f
c28 16 0 0.0204179f
c29 15 0 0.204685f
c30 9 0 0.031664f
c31 7 0 0.0808333f
c32 5 0 0.0838372f
c33 4 0 0.0609258f
r34 104 106 0.0487391
r35 86 104 8
r36 85 88 8.23869
r37 85 87 8.23869
r38 85 86 13.2552
r39 82 83 8.52632
r40 82 88 13.75
r41 80 100 8
r42 79 80 13.2552
r43 76 79 4.88298
r44 74 75 0.387097
r45 72 74 6.09677
r46 72 73 13.2552
r47 69 70 13.2552
r48 64 87 26.25
r49 60 83 41
r50 55 75 4.6844
r51 55 57 34.25
r52 52 74 4.6844
r53 52 54 29.75
r54 51 76 4.73303
r55 51 54 23.25
r56 48 69 8.16175
r57 48 50 34.25
r58 44 69 8.16175
r59 44 46 29.75
r60 41 42 16.3327
r61 39 41 4.59
r62 37 92 0.0746667
r63 36 37 8.16635
r64 34 36 2.295
r65 32 70 8
r66 31 32 8
r67 28 92 8
r68 27 28 8
r69 24 31 0.0487391
r70 24 25 0.3978
r71 22 25 0.0363174
r72 22 23 3.6426
r73 21 23 0.0363174
r74 20 27 0.0487391
r75 20 21 0.0936
r76 17 70 0.0792622
r77 16 73 0.0647029
r78 16 17 0.0730435
r79 15 37 0.0433427
r80 14 42 0.0516853
r81 14 15 0.48087
r82 9 106 0.7644
r83 7 9 0.0363174
r84 6 7 0.1742
r85 5 100 0.0487391
r86 4 6 0.0363174
r87 4 5 0.0936
.ends

.subckt PM_FOURBITSADDER%OUT_7 24 29 36 41
c0 54 0 0.119527f
c1 47 0 0.148132f
c2 42 0 0.0977296f
c3 39 0 0.261717f
c4 38 0 0.0553235f
c5 37 0 0.0107536f
c6 32 0 0.0962135f
c7 27 0 0.201567f
c8 22 0 0.0231819f
c9 21 0 0.105222f
c10 20 0 0.00953288f
c11 18 0 0.0348158f
c12 10 0 0.770405f
c13 8 0 0.149968f
r14 44 54 13.2552
r15 39 44 8.03457
r16 39 41 34.25
r17 38 44 11.5662
r18 37 42 4.47568
r19 37 38 22.9135
r20 36 42 19
r21 32 47 8
r22 31 32 16.3327
r23 29 31 4.59
r24 26 27 8.16635
r25 24 26 2.295
r26 21 54 8
r27 20 22 0.0487391
r28 20 21 8
r29 15 18 0.0487391
r30 15 47 8
r31 12 22 0.1027
r32 10 12 0.0363174
r33 10 18 3.1733
r34 8 27 0.0441769
r35 5 32 0.0516853
r36 5 8 0.322609
.ends

.subckt PM_FOURBITSADDER%C3 36 41 48 52 56 59 62 66
c0 108 0 0.416684f
c1 106 0 0.0837828f
c2 94 0 0.147118f
c3 88 0 0.152058f
c4 87 0 0.105628f
c5 85 0 0.0264837f
c6 84 0 0.0384187f
c7 82 0 0.138829f
c8 81 0 0.111961f
c9 76 0 0.115397f
c10 75 0 0.131249f
c11 66 0 0.116176f
c12 62 0 0.150832f
c13 57 0 0.101305f
c14 56 0 0.0942126f
c15 50 0 0.224064f
c16 48 0 0.113339f
c17 44 0 0.123697f
c18 39 0 0.0459221f
c19 33 0 0.120098f
c20 32 0 0.0553154f
c21 28 0 0.0586595f
c22 27 0 0.0162851f
c23 25 0 0.070024f
c24 23 0 0.0178327f
c25 22 0 0.927384f
c26 21 0 0.0266891f
c27 17 0 0.107869f
c28 16 0 0.0204179f
c29 15 0 0.204685f
c30 9 0 0.031664f
c31 7 0 0.0808333f
c32 5 0 0.0838372f
c33 4 0 0.0609258f
r34 106 108 0.0487391
r35 88 106 8
r36 87 90 8.23869
r37 87 89 8.23869
r38 87 88 13.2552
r39 84 85 8.52632
r40 84 90 13.75
r41 82 102 8
r42 81 82 13.2552
r43 78 81 4.88298
r44 76 77 0.387097
r45 74 76 6.09677
r46 74 75 13.2552
r47 71 72 13.2552
r48 66 89 26.25
r49 62 85 41
r50 57 77 4.6844
r51 57 59 34.25
r52 54 76 4.6844
r53 54 56 29.75
r54 53 78 4.73303
r55 53 56 23.25
r56 50 71 8.16175
r57 50 52 34.25
r58 46 71 8.16175
r59 46 48 29.75
r60 43 44 16.3327
r61 41 43 4.59
r62 39 94 0.0746667
r63 38 39 8.16635
r64 36 38 2.295
r65 33 72 8
r66 32 35 0.0487391
r67 32 33 8
r68 28 94 8
r69 27 30 0.0487391
r70 27 28 8
r71 25 35 0.4056
r72 22 25 0.0363174
r73 22 23 3.627
r74 21 23 0.0363174
r75 21 30 0.1027
r76 17 72 0.0792622
r77 16 75 0.0647029
r78 16 17 0.0730435
r79 15 39 0.0433427
r80 14 44 0.0516853
r81 14 15 0.48087
r82 9 108 0.7644
r83 7 9 0.0363174
r84 6 7 0.1742
r85 5 102 0.0487391
r86 4 6 0.0363174
r87 4 5 0.0936
.ends

.subckt PM_FOURBITSADDER%OUT_10 24 29 36 41
c0 54 0 0.119527f
c1 47 0 0.148132f
c2 42 0 0.0977296f
c3 39 0 0.261717f
c4 38 0 0.0553235f
c5 37 0 0.0107536f
c6 32 0 0.0962135f
c7 27 0 0.201471f
c8 22 0 0.0231819f
c9 21 0 0.105222f
c10 20 0 0.00953288f
c11 18 0 0.0347371f
c12 10 0 0.770076f
c13 8 0 0.149968f
r14 44 54 13.2552
r15 39 44 8.03457
r16 39 41 34.25
r17 38 44 11.5662
r18 37 42 4.47568
r19 37 38 22.9135
r20 36 42 19
r21 32 47 8
r22 31 32 16.3327
r23 29 31 4.59
r24 26 27 8.16635
r25 24 26 2.295
r26 21 54 8
r27 20 22 0.0487391
r28 20 21 8
r29 15 18 0.0487391
r30 15 47 8
r31 12 22 0.1027
r32 10 12 0.0363174
r33 10 18 3.1733
r34 8 27 0.0441769
r35 5 32 0.0516853
r36 5 8 0.322609
.ends

.subckt PM_FOURBITSADDER%noxref_8 9 14 15 19
c0 32 0 0.136351f
c1 22 0 0.0958234f
c2 18 0 0.149058f
c3 12 0 0.141689f
c4 5 0 0.0766751f
c5 4 0 0.0785677f
c6 3 0 0.0974473f
c7 2 0 0.0831241f
r8 22 32 8
r9 21 22 16.3327
r10 19 21 4.59
r11 18 29 8
r12 17 18 16.3327
r13 15 17 4.59
r14 14 17 4.59
r15 12 25 8
r16 11 12 16.3327
r17 9 11 4.59
r18 5 29 0.0487391
r19 4 32 0.0487391
r20 4 5 0.2288
r21 3 25 0.0487391
r22 2 29 0.0487391
r23 2 3 0.2288
.ends

.subckt PM_FOURBITSADDER%A0 15 21 25 29 32 35 72
c0 65 0 0.137548f
c1 64 0 0.0663689f
c2 62 0 0.0831005f
c3 60 0 0.151971f
c4 57 0 0.096391f
c5 54 0 0.125583f
c6 51 0 0.114725f
c7 48 0 0.109409f
c8 43 0 0.0264837f
c9 42 0 0.0384187f
c10 38 0 0.104624f
c11 35 0 0.10988f
c12 30 0 0.230649f
c13 29 0 0.0854983f
c14 23 0 0.107532f
c15 21 0 0.150832f
c16 15 0 0.11434f
c17 11 0 0.0404139f
c18 7 0 0.0374569f
c19 6 0 0.0253375f
c20 5 0 0.0712072f
c21 2 0 0.417747f
r22 64 65 8
r23 59 62 0.0487391
r24 59 60 8
r25 56 57 13.2552
r26 54 72 0.00538462
r27 53 54 13.2552
r28 51 53 6.09677
r29 50 51 0.387097
r30 45 48 4.88298
r31 45 65 13.2552
r32 42 43 8.52632
r33 41 42 13.75
r34 38 41 8.23869
r35 38 40 8.23869
r36 38 60 13.2552
r37 33 56 8.16175
r38 33 35 29.75
r39 30 56 8.16175
r40 30 32 34.25
r41 27 51 4.6844
r42 27 29 29.75
r43 26 48 4.73303
r44 26 29 23.25
r45 23 50 4.6844
r46 23 25 34.25
r47 21 43 41
r48 15 40 26.25
r49 12 54 0.0317666
r50 11 57 0.0647029
r51 11 12 0.101957
r52 6 64 0.0487391
r53 6 7 0.0936
r54 4 7 0.0363174
r55 4 5 0.1742
r56 2 5 0.0363174
r57 2 62 0.7644
.ends

.subckt PM_FOURBITSADDER%B0 12 17 22 27 30 33 57
c0 52 0 0.168648f
c1 49 0 0.108139f
c2 48 0 0.0415879f
c3 46 0 0.135759f
c4 42 0 0.0607543f
c5 38 0 0.110626f
c6 33 0 0.12164f
c7 28 0 0.246669f
c8 27 0 0.279448f
c9 22 0 0.18521f
c10 19 0 0.0227979f
c11 18 0 0.367667f
c12 17 0 0.123819f
c13 12 0 0.161934f
c14 7 0 0.117539f
c15 5 0 0.0144354f
c16 4 0 0.638206f
c17 3 0 0.0572981f
r18 52 55 0.0487391
r19 49 57 0.0219239
r20 48 49 8
r21 46 52 8
r22 45 46 13.2552
r23 40 42 12
r24 38 39 0.192719
r25 36 38 6.16702
r26 36 49 13.2552
r27 31 45 8.22231
r28 31 33 29.5
r29 28 45 8.13337
r30 28 30 34.25
r31 25 27 47.5
r32 24 42 0.528559
r33 24 27 58.75
r34 20 40 0.528559
r35 20 22 45.75
r36 18 25 5.02856
r37 18 19 144.5
r38 15 19 5.02856
r39 15 17 47.5
r40 14 39 4.70391
r41 14 17 34.25
r42 10 38 4.70391
r43 10 12 55.75
r44 7 55 0.39
r45 4 7 0.0363174
r46 4 5 2.132
r47 3 5 0.0363174
r48 2 48 0.0487391
r49 2 3 0.3783
.ends

.subckt PM_FOURBITSADDER%OUT_T1 13 14 18 25 28
c0 44 0 0.0392236f
c1 43 0 0.144752f
c2 42 0 0.0878132f
c3 40 0 0.0419404f
c4 35 0 0.238442f
c5 34 0 0.113653f
c6 28 0 0.110349f
c7 23 0 0.222631f
c8 21 0 0.125358f
c9 7 0 0.139435f
c10 6 0 0.105047f
c11 5 0 0.0386079f
c12 3 0 0.167652f
r13 42 44 0.0487391
r14 42 43 8
r15 38 40 0.0487391
r16 34 35 8
r17 31 43 13.2552
r18 26 31 8.26586
r19 26 28 29.75
r20 23 31 8.26586
r21 23 25 34.25
r22 21 38 8
r23 20 21 16.3327
r24 18 20 4.59
r25 16 35 8.16635
r26 14 16 2.34
r27 13 16 2.295
r28 8 44 0.1157
r29 7 38 0.0487391
r30 6 8 0.0363174
r31 6 7 0.1131
r32 5 40 0.0871
r33 3 34 0.0487391
r34 2 5 0.0363174
r35 2 3 0.2938
.ends

.subckt PM_FOURBITSADDER%OUT_T2 13 14 18 25 29
c0 43 0 0.122204f
c1 41 0 0.14381f
c2 36 0 0.0320238f
c3 34 0 0.0945377f
c4 32 0 0.144993f
c5 27 0 0.228398f
c6 25 0 0.110314f
c7 21 0 0.125236f
c8 18 0 1.55385e-19
c9 17 0 0.239262f
c10 9 0 0.170208f
c11 6 0 0.0855594f
c12 5 0 0.0376788f
c13 4 0 0.0509761f
r14 39 41 0.0487391
r15 34 36 0.0487391
r16 32 34 8
r17 31 32 13.2552
r18 27 31 8.26586
r19 27 29 34.25
r20 23 31 8.26586
r21 23 25 29.75
r22 21 39 8
r23 20 21 16.3327
r24 18 20 4.59
r25 17 43 8
r26 16 17 8.16635
r27 14 16 2.295
r28 13 16 2.34
r29 9 43 0.0487391
r30 8 9 0.2938
r31 6 8 0.0363174
r32 6 41 0.0871
r33 4 39 0.0487391
r34 4 5 0.1131
r35 2 5 0.0363174
r36 2 36 0.1157
.ends

.subckt PM_FOURBITSADDER%S0 13 14 18 19 32
c0 32 0 0.0863051f
c1 22 0 0.150657f
c2 18 0 0.00274026f
c3 17 0 0.275514f
c4 12 0 0.117914f
c5 10 0 0.0633443f
c6 8 0 0.0321055f
c7 7 0 0.168764f
r8 21 22 16.3327
r9 19 21 4.59
r10 18 21 4.59
r11 17 32 0.0124444
r12 16 17 8.16635
r13 14 16 2.295
r14 13 16 2.295
r15 12 17 0.0444122
r16 9 22 0.0516853
r17 9 10 0.133913
r18 7 10 0.039111
r19 7 8 0.202391
r20 5 8 0.039111
r21 5 12 0.276957
.ends

.subckt PM_FOURBITSADDER%C0 15 19 23 26 29 33 72
c0 65 0 0.416684f
c1 63 0 0.0837828f
c2 55 0 0.152058f
c3 54 0 0.105628f
c4 52 0 0.0264837f
c5 51 0 0.0384187f
c6 49 0 0.137739f
c7 48 0 0.109409f
c8 43 0 0.114847f
c9 42 0 0.127907f
c10 33 0 0.116176f
c11 29 0 0.150832f
c12 24 0 0.100628f
c13 23 0 0.0910517f
c14 17 0 0.230958f
c15 15 0 0.114946f
c16 12 0 0.0994413f
c17 11 0 0.0425031f
c18 7 0 0.0296659f
c19 5 0 0.0784301f
c20 3 0 0.0642246f
c21 2 0 0.0609258f
r22 63 65 0.0487391
r23 55 63 8
r24 54 57 8.23869
r25 54 56 8.23869
r26 54 55 13.2552
r27 51 52 8.52632
r28 51 57 13.75
r29 49 59 8
r30 48 49 13.2552
r31 45 48 4.88298
r32 43 44 0.387097
r33 42 72 0.00538462
r34 41 43 6.09677
r35 41 42 13.2552
r36 38 39 13.2552
r37 33 56 26.25
r38 29 52 41
r39 24 44 4.6844
r40 24 26 34.25
r41 21 43 4.6844
r42 21 23 29.75
r43 20 45 4.73303
r44 20 23 23.25
r45 17 38 8.16175
r46 17 19 34.25
r47 13 38 8.16175
r48 13 15 29.75
r49 12 39 0.0647029
r50 11 42 0.0317666
r51 11 12 0.101957
r52 7 65 0.7644
r53 5 7 0.0363174
r54 4 5 0.1742
r55 3 59 0.0487391
r56 2 4 0.0363174
r57 2 3 0.0936
.ends

.subckt PM_FOURBITSADDER%noxref_15 9 14 15 19
c0 32 0 0.106887f
c1 22 0 0.141689f
c2 18 0 0.149058f
c3 12 0 0.0958234f
c4 5 0 0.0809851f
c5 4 0 0.0881651f
c6 3 0 0.140661f
c7 2 0 0.0836086f
r8 22 32 8
r9 21 22 16.3327
r10 19 21 4.59
r11 18 29 8
r12 17 18 16.3327
r13 15 17 4.59
r14 14 17 4.59
r15 12 25 8
r16 11 12 16.3327
r17 9 11 4.59
r18 5 29 0.0487391
r19 4 32 0.0487391
r20 4 5 0.2288
r21 3 25 0.0487391
r22 2 29 0.0487391
r23 2 3 0.2288
.ends

.subckt PM_FOURBITSADDER%F1 30 31 35 36 42 46 50 55 60 63
c0 88 0 0.0893628f
c1 84 0 0.135762f
c2 83 0 0.17053f
c3 81 0 0.0612523f
c4 79 0 0.104151f
c5 76 0 0.13931f
c6 73 0 0.120034f
c7 70 0 0.0607543f
c8 63 0 0.173262f
c9 60 0 0.134197f
c10 55 0 0.188228f
c11 52 0 0.021387f
c12 51 0 0.369078f
c13 50 0 0.279448f
c14 44 0 0.246669f
c15 42 0 0.120994f
c16 39 0 0.14886f
c17 35 0 0.00274026f
c18 29 0 0.117914f
c19 25 0 0.063065f
c20 24 0 0.137804f
c21 23 0 0.0567921f
c22 18 0 0.0392914f
c23 17 0 0.137515f
c24 14 0 1.09439f
c25 13 0 0.304922f
c26 11 0 0.051762f
c27 10 0 0.241804f
c28 9 0 0.133847f
c29 7 0 0.034111f
c30 6 0 0.81099f
c31 5 0 0.201502f
c32 2 0 0.364009f
r33 83 86 0.0487391
r34 83 84 8
r35 78 81 0.0487391
r36 78 79 8
r37 76 88 8
r38 75 76 13.2552
r39 73 75 6.16702
r40 72 73 0.192719
r41 68 70 12
r42 66 84 13.2552
r43 61 73 4.70391
r44 61 63 55.75
r45 58 60 47.5
r46 57 72 4.70391
r47 57 60 34.25
r48 53 70 0.528559
r49 53 55 45.75
r50 51 58 5.02856
r51 51 52 144.5
r52 48 52 5.02856
r53 48 50 47.5
r54 47 68 0.528559
r55 47 50 58.75
r56 44 66 8.13337
r57 44 46 34.25
r58 40 66 8.22231
r59 40 42 29.5
r60 38 39 16.3327
r61 36 38 4.59
r62 35 38 4.59
r63 33 79 8.16635
r64 31 33 2.295
r65 30 33 2.295
r66 29 79 0.0444122
r67 26 29 0.276957
r68 24 26 0.039111
r69 24 25 0.202391
r70 23 25 0.039111
r71 22 39 0.0516853
r72 22 23 0.133913
r73 16 88 0.0487391
r74 16 17 0.3783
r75 15 18 0.0275239
r76 14 17 0.0363174
r77 14 15 1.6783
r78 13 18 0.00715299
r79 12 13 0.7917
r80 10 18 0.0275239
r81 10 11 0.3887
r82 9 11 0.0363174
r83 9 86 0.39
r84 6 12 0.0363174
r85 6 7 1.8135
r86 4 7 0.0363174
r87 4 5 0.4992
r88 2 5 0.0363174
r89 2 81 0.8164
.ends

.subckt PM_FOURBITSADDER%OUT_2 14 19 26 30
c0 42 0 0.117007f
c1 41 0 0.105295f
c2 38 0 0.14006f
c3 37 0 0.060595f
c4 35 0 0.135375f
c5 32 0 0.101387f
c6 26 0 0.187874f
c7 22 0 0.121969f
c8 19 0 0.00251852f
c9 17 0 0.0435365f
c10 13 0 0.150221f
c11 7 0 0.212282f
c12 5 0 0.0135162f
c13 4 0 0.999435f
c14 3 0 0.074482f
r15 41 44 0.0487391
r16 41 42 8
r17 37 38 8
r18 32 35 8.1313
r19 32 34 8.1313
r20 32 42 13.2552
r21 30 35 34.25
r22 26 34 55.75
r23 21 22 16.3327
r24 19 21 4.59
r25 17 38 0.0738889
r26 16 17 8.16635
r27 14 16 2.295
r28 13 17 0.0441769
r29 10 22 0.0516853
r30 10 13 0.322609
r31 7 44 0.5135
r32 4 7 0.0363174
r33 4 5 2.7001
r34 3 5 0.0363174
r35 2 37 0.0487391
r36 2 3 0.2106
.ends

.subckt PM_FOURBITSADDER%OUT_3 13 18 19 25 29
c0 45 0 0.13091f
c1 39 0 0.060196f
c2 34 0 0.123197f
c3 31 0 0.10344f
c4 25 0 0.167725f
c5 22 0 0.126085f
c6 16 0 0.233845f
c7 9 0 0.0807709f
c8 7 0 0.0269337f
c9 6 0 0.0711694f
c10 5 0 0.0893193f
c11 4 0 0.0381577f
c12 2 0 0.0751774f
r13 44 45 8
r14 36 39 0.0487391
r15 31 34 8.23869
r16 31 33 8.23869
r17 31 45 13.2552
r18 29 34 34.25
r19 25 33 55.75
r20 22 36 8
r21 21 22 16.3327
r22 19 21 4.59
r23 18 21 4.59
r24 16 41 8
r25 15 16 8.16635
r26 13 15 2.295
r27 9 44 0.0493843
r28 8 9 0.2678
r29 6 44 0.0487304
r30 6 7 0.0819
r31 5 41 0.0487459
r32 4 7 0.0363174
r33 4 5 0.1183
r34 2 8 0.0363174
r35 2 39 0.3042
.ends

.subckt PM_FOURBITSADDER%noxref_19 9 14 15 19
c0 32 0 0.136351f
c1 22 0 0.0958234f
c2 18 0 0.149058f
c3 12 0 0.141689f
c4 5 0 0.0766751f
c5 4 0 0.0785677f
c6 3 0 0.102063f
c7 2 0 0.0831241f
r8 22 32 8
r9 21 22 16.3327
r10 19 21 4.59
r11 18 29 8
r12 17 18 16.3327
r13 15 17 4.59
r14 14 17 4.59
r15 12 25 8
r16 11 12 16.3327
r17 9 11 4.59
r18 5 29 0.0487391
r19 4 32 0.0487391
r20 4 5 0.2288
r21 3 25 0.0487391
r22 2 29 0.0487391
r23 2 3 0.2288
.ends

.subckt PM_FOURBITSADDER%A1 15 21 25 29 32 35 72
c0 65 0 0.137548f
c1 64 0 0.0663689f
c2 62 0 0.0888121f
c3 60 0 0.151972f
c4 57 0 0.096391f
c5 54 0 0.125583f
c6 51 0 0.114725f
c7 48 0 0.109409f
c8 43 0 0.0264837f
c9 42 0 0.0384187f
c10 38 0 0.104624f
c11 35 0 0.10988f
c12 30 0 0.230649f
c13 29 0 0.0854983f
c14 23 0 0.107532f
c15 21 0 0.150832f
c16 15 0 0.11434f
c17 11 0 0.0404139f
c18 7 0 0.0374569f
c19 6 0 0.0253375f
c20 5 0 0.0712072f
c21 2 0 0.417753f
r22 64 65 8
r23 59 62 0.0487391
r24 59 60 8
r25 56 57 13.2552
r26 54 72 0.00538462
r27 53 54 13.2552
r28 51 53 6.09677
r29 50 51 0.387097
r30 45 48 4.88298
r31 45 65 13.2552
r32 42 43 8.52632
r33 41 42 13.75
r34 38 41 8.23869
r35 38 40 8.23869
r36 38 60 13.2552
r37 33 56 8.16175
r38 33 35 29.75
r39 30 56 8.16175
r40 30 32 34.25
r41 27 51 4.6844
r42 27 29 29.75
r43 26 48 4.73303
r44 26 29 23.25
r45 23 50 4.6844
r46 23 25 34.25
r47 21 43 41
r48 15 40 26.25
r49 12 54 0.0317666
r50 11 57 0.0647029
r51 11 12 0.101957
r52 6 64 0.0487391
r53 6 7 0.0936
r54 4 7 0.0363174
r55 4 5 0.1742
r56 2 5 0.0363174
r57 2 62 0.7644
.ends

.subckt PM_FOURBITSADDER%B1 12 17 22 27 30 33 57
c0 52 0 0.168654f
c1 49 0 0.131844f
c2 48 0 0.0568321f
c3 46 0 0.135759f
c4 42 0 0.0607543f
c5 38 0 0.114913f
c6 33 0 0.12164f
c7 28 0 0.246669f
c8 27 0 0.279448f
c9 22 0 0.18521f
c10 19 0 0.0225757f
c11 18 0 0.364223f
c12 17 0 0.134377f
c13 12 0 0.168645f
c14 7 0 0.117539f
c15 5 0 0.0291656f
c16 4 0 0.756034f
c17 3 0 0.124504f
r18 52 55 0.0487391
r19 49 57 0.0297539
r20 48 49 8
r21 46 52 8
r22 45 46 13.2552
r23 40 42 12
r24 38 39 0.192719
r25 36 38 6.16702
r26 36 49 13.2552
r27 31 45 8.22231
r28 31 33 29.5
r29 28 45 8.13337
r30 28 30 34.25
r31 25 27 47.5
r32 24 42 0.528559
r33 24 27 58.75
r34 20 40 0.528559
r35 20 22 45.75
r36 18 25 5.02856
r37 18 19 144.5
r38 15 19 5.02856
r39 15 17 47.5
r40 14 39 4.70391
r41 14 17 34.25
r42 10 38 4.70391
r43 10 12 55.75
r44 7 55 0.39
r45 4 7 0.0363174
r46 4 5 2.132
r47 3 5 0.0363174
r48 2 48 0.0487391
r49 2 3 0.3783
.ends

.subckt PM_FOURBITSADDER%OUT_T3 13 14 18 25 28
c0 44 0 0.0392236f
c1 43 0 0.144808f
c2 42 0 0.0878265f
c3 40 0 0.0419406f
c4 35 0 0.238442f
c5 34 0 0.113835f
c6 28 0 0.110349f
c7 23 0 0.223958f
c8 21 0 0.125358f
c9 7 0 0.139435f
c10 6 0 0.105048f
c11 5 0 0.0386079f
c12 3 0 0.167652f
r13 42 44 0.0487391
r14 42 43 8
r15 38 40 0.0487391
r16 34 35 8
r17 31 43 13.2552
r18 26 31 8.26586
r19 26 28 29.75
r20 23 31 8.26586
r21 23 25 34.25
r22 21 38 8
r23 20 21 16.3327
r24 18 20 4.59
r25 16 35 8.16635
r26 14 16 2.34
r27 13 16 2.295
r28 8 44 0.1157
r29 7 38 0.0487391
r30 6 8 0.0363174
r31 6 7 0.1131
r32 5 40 0.0871
r33 3 34 0.0487391
r34 2 5 0.0363174
r35 2 3 0.2938
.ends

.subckt PM_FOURBITSADDER%OUT_T4 13 14 18 25 29
c0 43 0 0.115942f
c1 41 0 0.151384f
c2 36 0 0.0319901f
c3 34 0 0.094562f
c4 32 0 0.145049f
c5 27 0 0.229693f
c6 25 0 0.109654f
c7 21 0 0.12521f
c8 18 0 1.55385e-19
c9 17 0 0.241503f
c10 9 0 0.185989f
c11 6 0 0.0903597f
c12 5 0 0.0436816f
c13 4 0 0.0574576f
r14 39 41 0.0487391
r15 34 36 0.0487391
r16 32 34 8
r17 31 32 13.2552
r18 27 31 8.26586
r19 27 29 34.25
r20 23 31 8.26586
r21 23 25 29.75
r22 21 39 8
r23 20 21 16.3327
r24 18 20 4.59
r25 17 43 8
r26 16 17 8.16635
r27 14 16 2.295
r28 13 16 2.34
r29 9 43 0.0487391
r30 8 9 0.2938
r31 6 8 0.0363174
r32 6 41 0.0871
r33 4 39 0.0487391
r34 4 5 0.1131
r35 2 5 0.0363174
r36 2 36 0.1157
.ends

.subckt PM_FOURBITSADDER%S1 13 14 18 19 32
c0 32 0 0.0863054f
c1 22 0 0.150657f
c2 18 0 0.00274026f
c3 17 0 0.281707f
c4 12 0 0.117914f
c5 10 0 0.0633443f
c6 8 0 0.0321055f
c7 7 0 0.168764f
r8 21 22 16.3327
r9 19 21 4.59
r10 18 21 4.59
r11 17 32 0.0124444
r12 16 17 8.16635
r13 14 16 2.295
r14 13 16 2.295
r15 12 17 0.0444122
r16 9 22 0.0516853
r17 9 10 0.133913
r18 7 10 0.039111
r19 7 8 0.202391
r20 5 8 0.039111
r21 5 12 0.276957
.ends

.subckt PM_FOURBITSADDER%noxref_25 9 14 15 19
c0 32 0 0.106887f
c1 22 0 0.141689f
c2 18 0 0.149058f
c3 12 0 0.0958234f
c4 5 0 0.0809851f
c5 4 0 0.0881651f
c6 3 0 0.140661f
c7 2 0 0.0836086f
r8 22 32 8
r9 21 22 16.3327
r10 19 21 4.59
r11 18 29 8
r12 17 18 16.3327
r13 15 17 4.59
r14 14 17 4.59
r15 12 25 8
r16 11 12 16.3327
r17 9 11 4.59
r18 5 29 0.0487391
r19 4 32 0.0487391
r20 4 5 0.2288
r21 3 25 0.0487391
r22 2 29 0.0487391
r23 2 3 0.2288
.ends

.subckt PM_FOURBITSADDER%F2 30 31 35 36 42 46 50 55 60 63
c0 88 0 0.0893628f
c1 84 0 0.136166f
c2 83 0 0.170806f
c3 81 0 0.0614346f
c4 79 0 0.104151f
c5 76 0 0.13931f
c6 73 0 0.120034f
c7 70 0 0.0607543f
c8 63 0 0.173262f
c9 60 0 0.134197f
c10 55 0 0.188228f
c11 52 0 0.021387f
c12 51 0 0.369078f
c13 50 0 0.279448f
c14 44 0 0.247769f
c15 42 0 0.120994f
c16 39 0 0.14886f
c17 35 0 0.00274026f
c18 29 0 0.117914f
c19 25 0 0.063065f
c20 24 0 0.137804f
c21 23 0 0.0567921f
c22 18 0 0.0395105f
c23 17 0 0.137515f
c24 14 0 1.04053f
c25 13 0 0.284298f
c26 11 0 0.054649f
c27 10 0 0.339331f
c28 9 0 0.135428f
c29 7 0 0.034111f
c30 6 0 0.866093f
c31 5 0 0.201502f
c32 2 0 0.364824f
r33 83 86 0.0487391
r34 83 84 8
r35 78 81 0.0487391
r36 78 79 8
r37 76 88 8
r38 75 76 13.2552
r39 73 75 6.16702
r40 72 73 0.192719
r41 68 70 12
r42 66 84 13.2552
r43 61 73 4.70391
r44 61 63 55.75
r45 58 60 47.5
r46 57 72 4.70391
r47 57 60 34.25
r48 53 70 0.528559
r49 53 55 45.75
r50 51 58 5.02856
r51 51 52 144.5
r52 48 52 5.02856
r53 48 50 47.5
r54 47 68 0.528559
r55 47 50 58.75
r56 44 66 8.13337
r57 44 46 34.25
r58 40 66 8.22231
r59 40 42 29.5
r60 38 39 16.3327
r61 36 38 4.59
r62 35 38 4.59
r63 33 79 8.16635
r64 31 33 2.295
r65 30 33 2.295
r66 29 79 0.0444122
r67 26 29 0.276957
r68 24 26 0.039111
r69 24 25 0.202391
r70 23 25 0.039111
r71 22 39 0.0516853
r72 22 23 0.133913
r73 16 88 0.0487391
r74 16 17 0.3783
r75 15 18 0.0275239
r76 14 17 0.0363174
r77 14 15 1.5821
r78 13 18 0.00715299
r79 12 13 0.7917
r80 10 18 0.0275239
r81 10 11 0.4849
r82 9 11 0.0363174
r83 9 86 0.39
r84 6 12 0.0363174
r85 6 7 1.9097
r86 4 7 0.0363174
r87 4 5 0.4992
r88 2 5 0.0363174
r89 2 81 0.8164
.ends

.subckt PM_FOURBITSADDER%OUT_5 14 19 26 30
c0 42 0 0.117007f
c1 41 0 0.105295f
c2 38 0 0.14006f
c3 37 0 0.0611315f
c4 35 0 0.135375f
c5 32 0 0.101387f
c6 26 0 0.187874f
c7 22 0 0.120662f
c8 19 0 0.00193446f
c9 17 0 0.0435365f
c10 13 0 0.150221f
c11 7 0 0.212282f
c12 5 0 0.0135162f
c13 4 0 1.02747f
c14 3 0 0.0890873f
r15 41 44 0.0487391
r16 41 42 8
r17 37 38 8
r18 32 35 8.1313
r19 32 34 8.1313
r20 32 42 13.2552
r21 30 35 34.25
r22 26 34 55.75
r23 21 22 16.3327
r24 19 21 4.59
r25 17 38 0.0738889
r26 16 17 8.16635
r27 14 16 2.295
r28 13 17 0.0441769
r29 10 22 0.0516853
r30 10 13 0.322609
r31 7 44 0.5135
r32 4 7 0.0363174
r33 4 5 2.7001
r34 3 5 0.0363174
r35 2 37 0.0487391
r36 2 3 0.2106
.ends

.subckt PM_FOURBITSADDER%OUT_6 13 18 19 25 29
c0 45 0 0.13091f
c1 39 0 0.060196f
c2 34 0 0.123199f
c3 31 0 0.10344f
c4 25 0 0.167725f
c5 22 0 0.126085f
c6 16 0 0.233843f
c7 9 0 0.0807709f
c8 7 0 0.0269337f
c9 6 0 0.0711694f
c10 5 0 0.0892545f
c11 4 0 0.0381577f
c12 2 0 0.0751774f
r13 44 45 8
r14 36 39 0.0487391
r15 31 34 8.23869
r16 31 33 8.23869
r17 31 45 13.2552
r18 29 34 34.25
r19 25 33 55.75
r20 22 36 8
r21 21 22 16.3327
r22 19 21 4.59
r23 18 21 4.59
r24 16 41 8
r25 15 16 8.16635
r26 13 15 2.295
r27 9 44 0.0493843
r28 8 9 0.2678
r29 6 44 0.0487304
r30 6 7 0.0819
r31 5 41 0.0487459
r32 4 7 0.0363174
r33 4 5 0.1183
r34 2 8 0.0363174
r35 2 39 0.3042
.ends

.subckt PM_FOURBITSADDER%noxref_29 9 14 15 19
c0 32 0 0.136351f
c1 22 0 0.0958234f
c2 18 0 0.149058f
c3 12 0 0.141689f
c4 5 0 0.0766752f
c5 4 0 0.0785678f
c6 3 0 0.102063f
c7 2 0 0.0831242f
r8 22 32 8
r9 21 22 16.3327
r10 19 21 4.59
r11 18 29 8
r12 17 18 16.3327
r13 15 17 4.59
r14 14 17 4.59
r15 12 25 8
r16 11 12 16.3327
r17 9 11 4.59
r18 5 29 0.0487391
r19 4 32 0.0487391
r20 4 5 0.2288
r21 3 25 0.0487391
r22 2 29 0.0487391
r23 2 3 0.2288
.ends

.subckt PM_FOURBITSADDER%A2 15 21 25 29 32 35 72
c0 65 0 0.137548f
c1 64 0 0.0663689f
c2 62 0 0.0888132f
c3 60 0 0.151972f
c4 57 0 0.096391f
c5 54 0 0.125583f
c6 51 0 0.114725f
c7 48 0 0.109409f
c8 43 0 0.0264837f
c9 42 0 0.0384187f
c10 38 0 0.104624f
c11 35 0 0.10988f
c12 30 0 0.230649f
c13 29 0 0.0854983f
c14 23 0 0.107532f
c15 21 0 0.150832f
c16 15 0 0.11434f
c17 11 0 0.0404139f
c18 7 0 0.0374569f
c19 6 0 0.0253375f
c20 5 0 0.0712072f
c21 2 0 0.417757f
r22 64 65 8
r23 59 62 0.0487391
r24 59 60 8
r25 56 57 13.2552
r26 54 72 0.00538462
r27 53 54 13.2552
r28 51 53 6.09677
r29 50 51 0.387097
r30 45 48 4.88298
r31 45 65 13.2552
r32 42 43 8.52632
r33 41 42 13.75
r34 38 41 8.23869
r35 38 40 8.23869
r36 38 60 13.2552
r37 33 56 8.16175
r38 33 35 29.75
r39 30 56 8.16175
r40 30 32 34.25
r41 27 51 4.6844
r42 27 29 29.75
r43 26 48 4.73303
r44 26 29 23.25
r45 23 50 4.6844
r46 23 25 34.25
r47 21 43 41
r48 15 40 26.25
r49 12 54 0.0317666
r50 11 57 0.0647029
r51 11 12 0.101957
r52 6 64 0.0487391
r53 6 7 0.0936
r54 4 7 0.0363174
r55 4 5 0.1742
r56 2 5 0.0363174
r57 2 62 0.7644
.ends

.subckt PM_FOURBITSADDER%B2 12 17 22 27 30 33 57
c0 52 0 0.168658f
c1 49 0 0.131844f
c2 48 0 0.056837f
c3 46 0 0.135759f
c4 42 0 0.0607543f
c5 38 0 0.114913f
c6 33 0 0.12164f
c7 28 0 0.246669f
c8 27 0 0.279448f
c9 22 0 0.18521f
c10 19 0 0.0233838f
c11 18 0 0.376894f
c12 17 0 0.134377f
c13 12 0 0.168645f
c14 7 0 0.117539f
c15 5 0 0.0300037f
c16 4 0 0.778861f
c17 3 0 0.124107f
r18 52 55 0.0487391
r19 49 57 0.0305369
r20 48 49 8
r21 46 52 8
r22 45 46 13.2552
r23 40 42 12
r24 38 39 0.192719
r25 36 38 6.16702
r26 36 49 13.2552
r27 31 45 8.22231
r28 31 33 29.5
r29 28 45 8.13337
r30 28 30 34.25
r31 25 27 47.5
r32 24 42 0.528559
r33 24 27 58.75
r34 20 40 0.528559
r35 20 22 45.75
r36 18 25 5.02856
r37 18 19 144.5
r38 15 19 5.02856
r39 15 17 47.5
r40 14 39 4.70391
r41 14 17 34.25
r42 10 38 4.70391
r43 10 12 55.75
r44 7 55 0.39
r45 4 7 0.0363174
r46 4 5 2.132
r47 3 5 0.0363174
r48 2 48 0.0487391
r49 2 3 0.3783
.ends

.subckt PM_FOURBITSADDER%OUT_T5 13 14 18 25 28
c0 44 0 0.0392236f
c1 43 0 0.144819f
c2 42 0 0.0878363f
c3 40 0 0.0419408f
c4 35 0 0.238442f
c5 34 0 0.113967f
c6 28 0 0.110349f
c7 23 0 0.224098f
c8 21 0 0.125358f
c9 7 0 0.139436f
c10 6 0 0.105048f
c11 5 0 0.0386079f
c12 3 0 0.167652f
r13 42 44 0.0487391
r14 42 43 8
r15 38 40 0.0487391
r16 34 35 8
r17 31 43 13.2552
r18 26 31 8.26586
r19 26 28 29.75
r20 23 31 8.26586
r21 23 25 34.25
r22 21 38 8
r23 20 21 16.3327
r24 18 20 4.59
r25 16 35 8.16635
r26 14 16 2.34
r27 13 16 2.295
r28 8 44 0.1157
r29 7 38 0.0487391
r30 6 8 0.0363174
r31 6 7 0.1131
r32 5 40 0.0871
r33 3 34 0.0487391
r34 2 5 0.0363174
r35 2 3 0.2938
.ends

.subckt PM_FOURBITSADDER%OUT_T6 13 14 18 25 29
c0 43 0 0.115379f
c1 41 0 0.151179f
c2 36 0 0.0320238f
c3 34 0 0.0945727f
c4 32 0 0.14506f
c5 27 0 0.22983f
c6 25 0 0.109609f
c7 21 0 0.12521f
c8 18 0 1.55385e-19
c9 17 0 0.241295f
c10 9 0 0.185624f
c11 6 0 0.0900941f
c12 5 0 0.0435712f
c13 4 0 0.0573158f
r14 39 41 0.0487391
r15 34 36 0.0487391
r16 32 34 8
r17 31 32 13.2552
r18 27 31 8.26586
r19 27 29 34.25
r20 23 31 8.26586
r21 23 25 29.75
r22 21 39 8
r23 20 21 16.3327
r24 18 20 4.59
r25 17 43 8
r26 16 17 8.16635
r27 14 16 2.295
r28 13 16 2.34
r29 9 43 0.0487391
r30 8 9 0.2938
r31 6 8 0.0363174
r32 6 41 0.0871
r33 4 39 0.0487391
r34 4 5 0.1131
r35 2 5 0.0363174
r36 2 36 0.1157
.ends

.subckt PM_FOURBITSADDER%S2 13 14 18 19 32
c0 32 0 0.0863054f
c1 22 0 0.150657f
c2 18 0 0.00274026f
c3 17 0 0.281818f
c4 12 0 0.117914f
c5 10 0 0.0633443f
c6 8 0 0.0321055f
c7 7 0 0.168764f
r8 21 22 16.3327
r9 19 21 4.59
r10 18 21 4.59
r11 17 32 0.0124444
r12 16 17 8.16635
r13 14 16 2.295
r14 13 16 2.295
r15 12 17 0.0444122
r16 9 22 0.0516853
r17 9 10 0.133913
r18 7 10 0.039111
r19 7 8 0.202391
r20 5 8 0.039111
r21 5 12 0.276957
.ends

.subckt PM_FOURBITSADDER%noxref_35 9 14 15 19
c0 32 0 0.106887f
c1 22 0 0.141689f
c2 18 0 0.149058f
c3 12 0 0.0958234f
c4 5 0 0.0809851f
c5 4 0 0.0881651f
c6 3 0 0.140661f
c7 2 0 0.0836086f
r8 22 32 8
r9 21 22 16.3327
r10 19 21 4.59
r11 18 29 8
r12 17 18 16.3327
r13 15 17 4.59
r14 14 17 4.59
r15 12 25 8
r16 11 12 16.3327
r17 9 11 4.59
r18 5 29 0.0487391
r19 4 32 0.0487391
r20 4 5 0.2288
r21 3 25 0.0487391
r22 2 29 0.0487391
r23 2 3 0.2288
.ends

.subckt PM_FOURBITSADDER%F3 30 31 35 36 42 46 50 55 60 63
c0 88 0 0.0893628f
c1 84 0 0.136166f
c2 83 0 0.170827f
c3 81 0 0.0615667f
c4 79 0 0.104151f
c5 76 0 0.13931f
c6 73 0 0.120034f
c7 70 0 0.0607543f
c8 63 0 0.173262f
c9 60 0 0.134197f
c10 55 0 0.188228f
c11 52 0 0.021387f
c12 51 0 0.369078f
c13 50 0 0.279448f
c14 44 0 0.246604f
c15 42 0 0.120994f
c16 39 0 0.14886f
c17 35 0 0.00274026f
c18 29 0 0.117914f
c19 25 0 0.063065f
c20 24 0 0.137804f
c21 23 0 0.0567921f
c22 18 0 0.0393033f
c23 17 0 0.137515f
c24 14 0 1.03866f
c25 13 0 0.272215f
c26 11 0 0.0546796f
c27 10 0 0.342105f
c28 9 0 0.135413f
c29 7 0 0.034111f
c30 6 0 0.867874f
c31 5 0 0.201502f
c32 2 0 0.365418f
r33 83 86 0.0487391
r34 83 84 8
r35 78 81 0.0487391
r36 78 79 8
r37 76 88 8
r38 75 76 13.2552
r39 73 75 6.16702
r40 72 73 0.192719
r41 68 70 12
r42 66 84 13.2552